
     RDKit          3D

 95 99  0  0  0  0  0  0  0  0999 V2000
    4.4570   33.1380   58.4960 C   0  0  0  0  0  0  0  0  0  0  0  0
    4.3650   32.3960   57.2740 O   0  0  0  0  0  0  0  0  0  0  0  0
    5.1670   32.9240   56.1170 C   0  0  0  0  0  0  0  0  0  0  0  0
    5.8920   34.0800   56.3450 O   0  0  0  0  0  0  0  0  0  0  0  0
    5.0460   32.1330   54.8980 C   0  0  0  0  0  0  0  0  0  0  0  0
    5.3470   32.6090   53.6670 C   0  0  0  0  0  0  0  0  0  0  0  0
    5.9150   32.4190   52.5140 C   0  0  0  0  0  0  0  0  0  0  0  0
    6.8730   33.0940   51.6650 C   0  0  0  0  0  0  0  0  0  0  0  0
    7.2730   32.4860   50.4310 C   0  0  0  0  0  0  0  0  0  0  0  0
    6.7210   31.2230   50.0160 C   0  0  0  0  0  0  0  0  0  0  0  0
    5.7570   30.4930   50.7910 C   0  0  0  0  0  0  0  0  0  0  0  0
    5.3610   31.1180   52.0580 C   0  0  0  0  0  0  0  0  0  0  0  0
    5.0670   29.1470   50.4060 N   0  0  0  0  0  0  0  0  0  0  0  0
    5.9940   28.2470   50.7380 C   0  0  0  0  0  0  0  0  0  0  0  0
    6.1060   27.5580   52.0880 C   0  0  0  0  0  0  0  0  0  0  0  0
    7.3290   26.9640   52.4400 C   0  0  0  0  0  0  0  0  0  0  0  0
    7.5180   26.3220   53.7010 C   0  0  0  0  0  0  0  0  0  0  0  0
    6.4820   26.2470   54.6780 C   0  0  0  0  0  0  0  0  0  0  0  0
    5.2150   26.8760   54.2780 C   0  0  0  0  0  0  0  0  0  0  0  0
    5.0260   27.5070   53.0360 C   0  0  0  0  0  0  0  0  0  0  0  0
    6.4510   25.7810   55.7910 C   0  0  0  0  0  0  0  0  0  0  0  0
    5.2630   25.1360   56.4530 C   0  0  0  0  0  0  0  0  0  0  0  0
    5.3320   24.6460   57.8100 C   0  0  0  0  0  0  0  0  0  0  0  0
    6.5540   24.7480   58.5970 C   0  0  0  0  0  0  0  0  0  0  0  0
    7.7430   25.3860   57.9230 C   0  0  0  0  0  0  0  0  0  0  0  0
    7.6810   25.8710   56.5820 C   0  0  0  0  0  0  0  0  0  0  0  0
    6.4390   24.1960   60.0530 N   0  0  0  0  0  0  0  0  0  0  0  0
    5.2190   23.5950   60.6310 C   0  0  0  0  0  0  0  0  0  0  0  0
    7.8880   24.4850   60.7230 C   0  0  0  0  0  0  0  0  0  0  0  0
    3.9360   28.8260   49.8070 C   0  0  1  0  0  0  0  0  0  0  0  0
    3.4070   28.1030   50.0730 O   0  0  0  0  0  0  0  0  0  0  0  0
    2.6840   29.7150   49.5290 C   0  0  1  0  0  0  0  0  0  0  0  0
    2.1280   30.5200   50.7210 C   0  0  0  0  0  0  0  0  0  0  0  0
    0.8910   31.4380   50.4010 C   0  0  0  0  0  0  0  0  0  0  0  0
    0.5030   31.4270   48.8960 C   0  0  0  0  0  0  0  0  0  0  0  0
    1.7320   31.6150   47.9680 C   0  0  0  0  0  0  0  0  0  0  0  0
    2.9330   30.6650   48.2750 C   0  0  0  0  0  0  0  0  0  0  0  0
    4.3717   32.4500   59.3500 H   0  0  0  0  0  0  0  0  0  0  0  0
    5.4263   33.6564   58.5381 H   0  0  0  0  0  0  0  0  0  0  0  0
    3.6437   33.8774   58.5381 H   0  0  0  0  0  0  0  0  0  0  0  0
    4.3056   33.5277   55.7954 H   0  0  0  0  0  0  0  0  0  0  0  0
    5.9832   34.2254   57.3200 H   0  0  0  0  0  0  0  0  0  0  0  0
    5.6886   31.2525   55.0456 H   0  0  0  0  0  0  0  0  0  0  0  0
    3.9546   32.0181   54.8234 H   0  0  0  0  0  0  0  0  0  0  0  0
    4.3304   32.8474   53.3211 H   0  0  0  0  0  0  0  0  0  0  0  0
    6.3018   32.9875   54.0607 H   0  0  0  0  0  0  0  0  0  0  0  0
    5.0953   32.9619   52.0207 H   0  0  0  0  0  0  0  0  0  0  0  0
    6.4428   34.0747   51.4138 H   0  0  0  0  0  0  0  0  0  0  0  0
    7.7953   33.0931   52.2645 H   0  0  0  0  0  0  0  0  0  0  0  0
    7.0367   33.2077   49.6352 H   0  0  0  0  0  0  0  0  0  0  0  0
    8.3300   32.2414   50.6122 H   0  0  0  0  0  0  0  0  0  0  0  0
    6.2476   31.4064   49.0402 H   0  0  0  0  0  0  0  0  0  0  0  0
    7.6007   30.5666   50.0885 H   0  0  0  0  0  0  0  0  0  0  0  0
    6.5721   29.9641   51.3067 H   0  0  0  0  0  0  0  0  0  0  0  0
    4.2705   31.2522   52.0047 H   0  0  0  0  0  0  0  0  0  0  0  0
    5.7858   30.4212   52.7955 H   0  0  0  0  0  0  0  0  0  0  0  0
    5.8880   27.4347   50.0039 H   0  0  0  0  0  0  0  0  0  0  0  0
    6.8859   28.8898   50.7728 H   0  0  0  0  0  0  0  0  0  0  0  0
    5.7777   26.6121   51.6325 H   0  0  0  0  0  0  0  0  0  0  0  0
    7.5354   26.2037   51.6723 H   0  0  0  0  0  0  0  0  0  0  0  0
    7.9968   27.8345   52.5191 H   0  0  0  0  0  0  0  0  0  0  0  0
    7.8045   25.2839   53.4771 H   0  0  0  0  0  0  0  0  0  0  0  0
    8.2457   26.9867   54.1895 H   0  0  0  0  0  0  0  0  0  0  0  0
    6.8195   27.2010   55.1091 H   0  0  0  0  0  0  0  0  0  0  0  0
    4.4541   26.0835   54.3328 H   0  0  0  0  0  0  0  0  0  0  0  0
    5.1712   27.7331   54.9661 H   0  0  0  0  0  0  0  0  0  0  0  0
    4.1912   26.9901   52.5401 H   0  0  0  0  0  0  0  0  0  0  0  0
    4.8747   28.5624   53.3068 H   0  0  0  0  0  0  0  0  0  0  0  0
    6.1436   26.7583   56.1916 H   0  0  0  0  0  0  0  0  0  0  0  0
    4.4534   25.8803   56.4321 H   0  0  0  0  0  0  0  0  0  0  0  0
    5.1409   24.2100   55.8719 H   0  0  0  0  0  0  0  0  0  0  0  0
    4.5548   25.1832   58.3734 H   0  0  0  0  0  0  0  0  0  0  0  0
    5.2299   23.5593   57.6734 H   0  0  0  0  0  0  0  0  0  0  0  0
    6.8738   23.7623   58.2281 H   0  0  0  0  0  0  0  0  0  0  0  0
    8.0275   26.2450   58.5485 H   0  0  0  0  0  0  0  0  0  0  0  0
    8.4388   24.5390   57.8308 H   0  0  0  0  0  0  0  0  0  0  0  0
    7.9444   26.9381   56.6256 H   0  0  0  0  0  0  0  0  0  0  0  0
    8.3545   25.1826   56.0505 H   0  0  0  0  0  0  0  0  0  0  0  0
    5.2802   23.6251   61.7289 H   0  0  0  0  0  0  0  0  0  0  0  0
    4.3374   24.1619   60.2972 H   0  0  0  0  0  0  0  0  0  0  0  0
    5.1312   22.5506   60.2972 H   0  0  0  0  0  0  0  0  0  0  0  0
    7.7955   24.4665   61.8189 H   0  0  0  0  0  0  0  0  0  0  0  0
    8.6012   23.7114   60.4022 H   0  0  0  0  0  0  0  0  0  0  0  0
    8.2498   25.4730   60.4022 H   0  0  0  0  0  0  0  0  0  0  0  0
    4.6763   28.7691   48.9954 H   0  0  0  0  0  0  0  0  0  0  0  0
    1.8268   29.8056   51.5013 H   0  0  0  0  0  0  0  0  0  0  0  0
    2.9362   31.1994   51.0295 H   0  0  0  0  0  0  0  0  0  0  0  0
    0.0304   31.0845   50.9879 H   0  0  0  0  0  0  0  0  0  0  0  0
    1.1690   32.4696   50.6627 H   0  0  0  0  0  0  0  0  0  0  0  0
    0.0266   30.4638   48.6609 H   0  0  0  0  0  0  0  0  0  0  0  0
   -0.1827   32.2689   48.7198 H   0  0  0  0  0  0  0  0  0  0  0  0
    1.4095   31.4357   46.9317 H   0  0  0  0  0  0  0  0  0  0  0  0
    2.0951   32.6395   48.1371 H   0  0  0  0  0  0  0  0  0  0  0  0
    3.1143   30.0355   47.3913 H   0  0  0  0  0  0  0  0  0  0  0  0
    3.7969   31.3016   48.5165 H   0  0  0  0  0  0  0  0  0  0  0  0
  2  1  1  0
  3  2  1  0
  4  3  1  0
  5  3  1  0
  6  5  1  0
  7  6  1  0
  8  7  1  0
  9  8  1  0
 10  9  1  0
 11 10  1  0
 12 11  1  0
 12  7  1  0
 13 11  1  0
 14 13  1  0
 15 14  1  0
 16 15  1  0
 17 16  1  0
 18 17  1  0
 19 18  1  0
 20 19  1  0
 20 15  1  0
 21 18  1  0
 22 21  1  0
 23 22  1  0
 24 23  1  0
 25 24  1  0
 26 25  1  0
 26 21  1  0
 27 24  1  0
 28 27  1  0
 29 27  1  0
 30 13  1  0
 31 30  1  0
 32 31  1  6
 32 30  1  0
 33 32  1  0
 34 33  1  0
 35 34  1  0
 36 35  1  0
 37 36  1  0
 37 32  1  0
  1 38  1  0
  1 39  1  0
  1 40  1  0
  3 41  1  0
  4 42  1  0
  5 43  1  0
  5 44  1  0
  6 45  1  0
  6 46  1  0
  7 47  1  0
  8 48  1  0
  8 49  1  0
  9 50  1  0
  9 51  1  0
 10 52  1  0
 10 53  1  0
 11 54  1  0
 12 55  1  0
 12 56  1  0
 14 57  1  0
 14 58  1  0
 15 59  1  0
 16 60  1  0
 16 61  1  0
 17 62  1  0
 17 63  1  0
 18 64  1  0
 19 65  1  0
 19 66  1  0
 20 67  1  0
 20 68  1  0
 21 69  1  0
 22 70  1  0
 22 71  1  0
 23 72  1  0
 23 73  1  0
 24 74  1  0
 25 75  1  0
 25 76  1  0
 26 77  1  0
 26 78  1  0
 28 79  1  0
 28 80  1  0
 28 81  1  0
 29 82  1  0
 29 83  1  0
 29 84  1  0
 30 85  1  6
 33 86  1  0
 33 87  1  0
 34 88  1  0
 34 89  1  0
 35 90  1  0
 35 91  1  0
 36 92  1  0
 36 93  1  0
 37 94  1  0
 37 95  1  0
M  END
$$$$
