
     RDKit          3D

 82 85  0  0  0  0  0  0  0  0999 V2000
  -52.8870    2.2110  -10.0860 C   0  0  0  0  0  0  0  0  0  0  0  0
  -46.7310    0.9870  -14.1580 N   0  0  0  0  0  0  0  0  0  0  0  0
  -51.5400    2.4590   -9.6760 O   0  0  0  0  0  0  0  0  0  0  0  0
  -46.8800    0.6400  -12.5790 S   0  0  2  0  0  0  0  0  0  0  0  0
  -50.4430    2.0120  -10.3770 C   0  0  0  0  0  0  0  0  0  0  0  0
  -45.1760    6.1360  -15.4340 N   0  0  0  0  0  0  0  0  0  0  0  0
  -49.3550    8.6830  -10.8250 O   0  0  0  0  0  0  0  0  0  0  0  0
  -45.2090    7.5510  -14.6680 S   0  0  2  0  0  0  0  0  0  0  0  0
  -49.2160    2.6340  -10.1720 C   0  0  0  0  0  0  0  0  0  0  0  0
  -45.1740    8.5620  -15.6960 O   0  0  0  0  0  0  0  0  0  0  0  0
  -48.0940    2.2040  -10.8700 C   0  0  0  0  0  0  0  0  0  0  0  0
  -43.9660    7.5780  -13.9660 O   0  0  0  0  0  0  0  0  0  0  0  0
  -48.1870    1.1550  -11.7900 C   0  0  0  0  0  0  0  0  0  0  0  0
  -45.7160    1.1820  -11.9480 O   0  0  0  0  0  0  0  0  0  0  0  0
  -46.5580    2.2710  -14.5640 C   0  0  2  0  0  0  0  0  0  0  0  0
  -46.8140   -0.7890  -12.5430 O   0  0  0  0  0  0  0  0  0  0  0  0
  -45.3010    2.5480  -15.1120 C   0  0  0  0  0  0  0  0  0  0  0  0
  -44.4230    1.5040  -15.3970 C   0  0  0  0  0  0  0  0  0  0  0  0
  -43.1860    1.7320  -15.9750 C   0  0  0  0  0  0  0  0  0  0  0  0
  -42.7980    3.0150  -16.2660 C   0  0  0  0  0  0  0  0  0  0  0  0
  -43.6480    4.0730  -16.0010 C   0  0  0  0  0  0  0  0  0  0  0  0
  -44.9120    3.8550  -15.4210 C   0  0  0  0  0  0  0  0  0  0  0  0
  -45.7670    4.9320  -15.1730 C   0  0  2  0  0  0  0  0  0  0  0  0
  -46.3820    7.8570  -13.6050 C   0  0  1  0  0  0  0  0  0  0  0  0
  -47.3240    8.8630  -13.8400 C   0  0  0  0  0  0  0  0  0  0  0  0
  -48.3100    9.1250  -12.9080 C   0  0  0  0  0  0  0  0  0  0  0  0
  -48.3550    8.3870  -11.7230 C   0  0  0  0  0  0  0  0  0  0  0  0
  -49.7150    7.8710   -9.7010 C   0  0  0  0  0  0  0  0  0  0  0  0
  -47.3980    7.3950  -11.4770 C   0  0  0  0  0  0  0  0  0  0  0  0
  -46.4130    7.1330  -12.4140 C   0  0  0  0  0  0  0  0  0  0  0  0
  -47.0130    4.6810  -14.5700 C   0  0  0  0  0  0  0  0  0  0  0  0
  -47.4010    3.3550  -14.2570 C   0  0  0  0  0  0  0  0  0  0  0  0
  -49.4110    0.5330  -11.9910 C   0  0  0  0  0  0  0  0  0  0  0  0
  -50.5390    0.9640  -11.2920 C   0  0  0  0  0  0  0  0  0  0  0  0
  -53.5250    2.0935   -9.1976 H   0  0  0  0  0  0  0  0  0  0  0  0
  -53.2488    3.0576  -10.6879 H   0  0  0  0  0  0  0  0  0  0  0  0
  -52.9236    1.2910  -10.6879 H   0  0  0  0  0  0  0  0  0  0  0  0
  -45.9186    0.4557  -14.5024 H   0  0  0  0  0  0  0  0  0  0  0  0
  -50.6690    2.7239  -11.1846 H   0  0  0  0  0  0  0  0  0  0  0  0
  -45.5113    6.3676  -16.3800 H   0  0  0  0  0  0  0  0  0  0  0  0
  -49.3542    3.6974  -10.4170 H   0  0  0  0  0  0  0  0  0  0  0  0
  -48.9763    2.3826   -9.1283 H   0  0  0  0  0  0  0  0  0  0  0  0
  -45.1430    9.4582  -15.2765 H   0  0  0  0  0  0  0  0  0  0  0  0
  -47.7147    3.0755  -11.4237 H   0  0  0  0  0  0  0  0  0  0  0  0
  -47.4581    1.7815  -10.0781 H   0  0  0  0  0  0  0  0  0  0  0  0
  -44.1375    7.5743  -12.9910 H   0  0  0  0  0  0  0  0  0  0  0  0
  -47.9864    0.4319  -10.9857 H   0  0  0  0  0  0  0  0  0  0  0  0
  -45.8207    1.1332  -10.9648 H   0  0  0  0  0  0  0  0  0  0  0  0
  -47.4416    2.1545  -15.2087 H   0  0  0  0  0  0  0  0  0  0  0  0
  -46.7999   -1.0951  -11.6016 H   0  0  0  0  0  0  0  0  0  0  0  0
  -44.8774    2.6280  -14.1000 H   0  0  0  0  0  0  0  0  0  0  0  0
  -44.2291    0.9933  -14.4422 H   0  0  0  0  0  0  0  0  0  0  0  0
  -44.9558    0.9594  -16.1904 H   0  0  0  0  0  0  0  0  0  0  0  0
  -42.4322    1.3187  -15.2888 H   0  0  0  0  0  0  0  0  0  0  0  0
  -43.2750    1.2606  -16.9649 H   0  0  0  0  0  0  0  0  0  0  0  0
  -41.8728    3.2024  -15.7013 H   0  0  0  0  0  0  0  0  0  0  0  0
  -42.7304    3.0149  -17.3639 H   0  0  0  0  0  0  0  0  0  0  0  0
  -43.1051    4.7496  -15.3246 H   0  0  0  0  0  0  0  0  0  0  0  0
  -43.9012    4.4401  -17.0066 H   0  0  0  0  0  0  0  0  0  0  0  0
  -45.3536    3.7495  -16.4229 H   0  0  0  0  0  0  0  0  0  0  0  0
  -45.4058    4.9797  -14.1351 H   0  0  0  0  0  0  0  0  0  0  0  0
  -45.7318    8.5845  -13.0970 H   0  0  0  0  0  0  0  0  0  0  0  0
  -46.7609    9.7981  -13.9761 H   0  0  0  0  0  0  0  0  0  0  0  0
  -47.8900    8.4793  -14.7016 H   0  0  0  0  0  0  0  0  0  0  0  0
  -48.2059   10.1820  -12.6219 H   0  0  0  0  0  0  0  0  0  0  0  0
  -49.2361    8.8350  -13.4260 H   0  0  0  0  0  0  0  0  0  0  0  0
  -49.0095    7.6479  -12.2082 H   0  0  0  0  0  0  0  0  0  0  0  0
  -49.4773    8.4070   -8.7703 H   0  0  0  0  0  0  0  0  0  0  0  0
  -50.7931    7.6553   -9.7348 H   0  0  0  0  0  0  0  0  0  0  0  0
  -49.1510    6.9272   -9.7348 H   0  0  0  0  0  0  0  0  0  0  0  0
  -46.8835    7.6747  -10.5458 H   0  0  0  0  0  0  0  0  0  0  0  0
  -47.9915    6.4689  -11.4699 H   0  0  0  0  0  0  0  0  0  0  0  0
  -45.4465    7.2979  -11.9153 H   0  0  0  0  0  0  0  0  0  0  0  0
  -46.6391    6.1081  -12.7433 H   0  0  0  0  0  0  0  0  0  0  0  0
  -47.0269    5.2457  -13.6261 H   0  0  0  0  0  0  0  0  0  0  0  0
  -47.7314    4.9739  -15.3499 H   0  0  0  0  0  0  0  0  0  0  0  0
  -47.5697    3.3246  -13.1704 H   0  0  0  0  0  0  0  0  0  0  0  0
  -48.2657    3.1891  -14.9163 H   0  0  0  0  0  0  0  0  0  0  0  0
  -49.6446    0.6317  -13.0614 H   0  0  0  0  0  0  0  0  0  0  0  0
  -49.2448   -0.4813  -11.5991 H   0  0  0  0  0  0  0  0  0  0  0  0
  -51.2800    1.2694  -12.0455 H   0  0  0  0  0  0  0  0  0  0  0  0
  -50.7833    0.1001  -10.6565 H   0  0  0  0  0  0  0  0  0  0  0  0
  3  1  1  0
  4  2  1  0
  5  3  1  0
  8  6  1  0
  9  5  1  0
  8 10  1  6
 11  9  1  0
 12  8  1  0
 13  4  1  0
 13 11  1  0
  4 14  1  1
 15  2  1  0
 16  4  1  0
 17 15  1  0
 18 17  1  0
 19 18  1  0
 20 19  1  0
 21 20  1  0
 22 21  1  0
 22 17  1  0
 23 22  1  0
 23  6  1  0
 24  8  1  0
 25 24  1  0
 26 25  1  0
 27  7  1  0
 27 26  1  0
 28  7  1  0
 29 27  1  0
 30 29  1  0
 30 24  1  0
 31 23  1  0
 32 31  1  0
 32 15  1  0
 33 13  1  0
 34 33  1  0
 34  5  1  0
  1 35  1  0
  1 36  1  0
  1 37  1  0
  2 38  1  0
  5 39  1  0
  6 40  1  0
  9 41  1  0
  9 42  1  0
 10 43  1  0
 11 44  1  0
 11 45  1  0
 12 46  1  0
 13 47  1  0
 14 48  1  0
 15 49  1  6
 16 50  1  0
 17 51  1  0
 18 52  1  0
 18 53  1  0
 19 54  1  0
 19 55  1  0
 20 56  1  0
 20 57  1  0
 21 58  1  0
 21 59  1  0
 22 60  1  0
 23 61  1  6
 24 62  1  6
 25 63  1  0
 25 64  1  0
 26 65  1  0
 26 66  1  0
 27 67  1  0
 28 68  1  0
 28 69  1  0
 28 70  1  0
 29 71  1  0
 29 72  1  0
 30 73  1  0
 30 74  1  0
 31 75  1  0
 31 76  1  0
 32 77  1  0
 32 78  1  0
 33 79  1  0
 33 80  1  0
 34 81  1  0
 34 82  1  0
M  END
$$$$
